%chk=gauss.chk
%nprocshared=4
%mem=4GB
# b3lyp/6-31G(d,p) freq

Title

0 2
O -1.12351189158202 -0.0769484279090376 0.0307019717412205 
H -1.31713706910056 0.863845319303457 0.162606689465639 
N 1.18809960998016 0.0126455958400458 -0.0916371442455651 
H 1.358316938812 -0.662133858327758 0.66049141385763 
H -0.090379119529618 -0.0865395798059481 -0.36350868176215 
H 1.37227617425641 0.930353167933147 0.326386579709273 
 
