%chk=guaicol_opt.chk
# B3LYP empiricaldispersion=gd3 cc-pVDZ  geom=connectivity opt

Title Card Required

0 1
 C                 -2.63799750    1.41848522    0.00000000
 C                 -1.24283750    1.41848522    0.00000000
 C                 -0.54529950    2.62623622    0.00000000
 C                 -1.24295350    3.83474522   -0.00119900
 C                 -2.63777850    3.83466722   -0.00167800
 C                 -3.33537950    2.62646122   -0.00068200
 H                 -3.18775650    0.46616822    0.00045000
 H                 -0.69332950    0.46597222    0.00131500
 H                 -3.18790050    4.78694822   -0.00263100
 H                 -4.43498350    2.62664422   -0.00086200
 O                  0.88470026    2.62634025    0.00082444
 H                  1.20567660    2.62522505   -0.90392577
 O                 -0.52748543    5.07289118   -0.00127572
 C                 -1.27042969    6.05355945    0.72757514
 H                 -0.63881687    6.88882970    0.94732239
 H                 -2.10237084    6.38048391    0.13944732
 H                 -1.62601048    5.62515116    1.64131943

 1 2 1.5 6 1.5 7 1.0
 2 3 1.5 8 1.0
 3 4 1.5 11 1.0
 4 5 1.5 13 1.0
 5 6 1.5 9 1.0
 6 10 1.0
 7
 8
 9
 10
 11 12 1.0
 12
 13 14 1.0
 14 15 1.0 16 1.0 17 1.0
 15
 16
 17

