%chk=guaicol_freq.chk
#p freq b3lyp/cc-pvdz geom=connectivity empiricaldispersion=gd3
 pop=(hirshfeld, nboread) density=current iop(7/33=1,6/80=1)

Title Card Required

0 1
 C                  2.30531921   -0.58894921   -0.00004072
 C                  1.84162310    0.73320260    0.00003711
 C                  0.47336685    0.99331141    0.00009809
 C                 -0.44236708   -0.08324741   -0.00007815
 C                  0.01950889   -1.39900893   -0.00003358
 C                  1.40075108   -1.64981169    0.00003826
 H                  3.37989366   -0.78249156   -0.00006263
 H                  2.52799724    1.58179927    0.00007308
 H                 -0.68283223   -2.23261858    0.00002021
 H                  1.75774218   -2.68141517    0.00001916
 O                  0.02043463    2.27811126    0.00003726
 H                 -0.95034542    2.22947392    0.00027573
 O                 -1.75938340    0.31713861   -0.00035215
 C                 -2.76436055   -0.68477575    0.00020241
 H                 -3.72615221   -0.15504276    0.00038618
 H                 -2.69927682   -1.32313006   -0.89948860
 H                 -2.69848523   -1.32290011    0.89995551

 1 2 1.5 6 1.5 7 1.0
 2 3 1.5 8 1.0
 3 4 1.5 11 1.0
 4 5 1.5 13 1.0
 5 6 1.5 9 1.0
 6 10 1.0
 7
 8
 9
 10
 11 12 1.0
 12
 13 14 1.0
 14 15 1.0 16 1.0 17 1.0
 15
 16
 17

 $nbo bndidx $end
