! PBE0 D3 def2-SVP opt freq 
* xyz 0 1
C         -8.36972        0.54078       -0.36595
C         -6.84957        0.56234       -0.35222
H         -8.77051        0.48611        0.65126
H         -8.73143       -0.33054       -0.92083
H         -8.77051        1.43942       -0.84568
H         -6.48099       -0.36364        0.10430
C         -6.31352        1.76969        0.41666
H         -6.48099        0.58441       -1.38438
H         -6.68848        1.74502        1.44713
H         -6.68848        2.69303       -0.04149
C         -4.78410        1.78767        0.42811
H         -4.40933        0.86435        0.88641
C         -4.24754        2.99589        1.19756
H         -4.40933        1.81247       -0.60239
H         -4.62231        2.97109        2.22806
H         -4.62231        3.91921        0.73926
C         -2.71812        3.01387        1.20901
H         -2.34316        2.09052        1.66716
C         -2.18207        4.22121        1.97789
H         -2.34316        3.03853        0.17854
H         -2.55065        4.19914        3.01006
H         -2.55065        5.14719        1.52137
C         -0.66192        4.24278        1.99163
H         -0.26113        3.34413        2.47136
H         -0.30022        5.11409        2.54651
H         -0.26113        4.29744        0.97442
*
%output 
	Print[ P_Hirshfeld ] 1
end 
