%chk=gauss.chk
%nprocshared=4
%mem=4GB
# b3lyp/6-31G(d,p) freq

Title

0 2
O -1.14211749377646 -0.0771063275208349 0.0366096341046911 
H -1.31787254610008 0.871156516844 0.175061308358666 
N 1.19315315745621 0.0124857708168279 -0.0908655387277215 
H 1.33197244214905 -0.667626633504019 0.653546078883499 
H 0.190402311326933 -0.089308846901616 -0.45691492746486 
H 1.34364329291434 0.936030657719943 0.309803697752104 
 
