%chk=cyclopropane.chk
# opt b3lyp def2svp empiricaldispersion=gd3

Title Card Required

0 1
 C                 -0.20023797    0.54032820    0.74584999
 H                  0.15643487    1.04472639    1.61950150
 H                  0.15643487    1.04472639   -0.12780151
 H                 -1.27023797    0.54034138    0.74584999
 C                  0.46731434   -0.58726711    0.30672958
 H                  0.11063925   -1.09166609   -0.56692055
 H                  1.53731434   -0.58727976    0.30672722
 C                 -0.20156240   -0.77220906    1.50578485
 H                  0.15493056   -1.78107613    1.50568536
 H                  0.15527407   -0.26792392    2.37943480
 H                 -1.27156238   -0.77202487    1.50588654

