3
Coordinates from ORCA-job irc_IRC_Full E  -1.653868850899
  H       0.000000     -0.000000     -1.848798
  H      -0.000000      0.000000      0.548372
  H       0.000000     -0.000000      1.300426
3
Coordinates from ORCA-job irc_IRC_Full E  -1.653840742931
  H       0.000000     -0.000000     -1.840725
  H      -0.000000      0.000000      0.544255
  H       0.000000     -0.000000      1.296470
3
Coordinates from ORCA-job irc_IRC_Full E  -1.653811757192
  H       0.000000     -0.000000     -1.832675
  H      -0.000000      0.000000      0.540329
  H       0.000000     -0.000000      1.292346
3
Coordinates from ORCA-job irc_IRC_Full E  -1.653781601162
  H       0.000000     -0.000000     -1.824603
  H      -0.000000      0.000000      0.536204
  H       0.000000     -0.000000      1.288399
3
Coordinates from ORCA-job irc_IRC_Full E  -1.653750510915
  H       0.000000     -0.000000     -1.816555
  H      -0.000000      0.000000      0.532288
  H       0.000000     -0.000000      1.284267
3
Coordinates from ORCA-job irc_IRC_Full E  -1.653718248084
  H       0.000000     -0.000000     -1.808503
  H      -0.000000      0.000000      0.528138
  H       0.000000     -0.000000      1.280366
3
Coordinates from ORCA-job irc_IRC_Full E  -1.653684880234
  H       0.000000     -0.000000     -1.800438
  H      -0.000000      0.000000      0.524225
  H       0.000000     -0.000000      1.276213
3
Coordinates from ORCA-job irc_IRC_Full E  -1.653650308866
  H       0.000000     -0.000000     -1.792388
  H      -0.000000      0.000000      0.520091
  H       0.000000     -0.000000      1.272297
3
Coordinates from ORCA-job irc_IRC_Full E  -1.653614578818
  H       0.000000     -0.000000     -1.784325
  H      -0.000000      0.000000      0.516190
  H       0.000000     -0.000000      1.268135
3
Coordinates from ORCA-job irc_IRC_Full E  -1.653577565400
  H       0.000000     -0.000000     -1.776275
  H      -0.000000      0.000000      0.512045
  H       0.000000     -0.000000      1.264230
3
Coordinates from ORCA-job irc_IRC_Full E  -1.653539334795
  H       0.000000     -0.000000     -1.768216
  H      -0.000000      0.000000      0.508157
  H       0.000000     -0.000000      1.260059
3
Coordinates from ORCA-job irc_IRC_Full E  -1.653499733551
  H       0.000000     -0.000000     -1.760166
  H      -0.000000      0.000000      0.504000
  H       0.000000     -0.000000      1.256166
3
Coordinates from ORCA-job irc_IRC_Full E  -1.653458856009
  H       0.000000     -0.000000     -1.752110
  H      -0.000000      0.000000      0.500127
  H       0.000000     -0.000000      1.251983
3
Coordinates from ORCA-job irc_IRC_Full E  -1.653416515581
  H       0.000000     -0.000000     -1.744060
  H      -0.000000      0.000000      0.495957
  H       0.000000     -0.000000      1.248103
3
Coordinates from ORCA-job irc_IRC_Full E  -1.653372837535
  H       0.000000     -0.000000     -1.736008
  H      -0.000000      0.000000      0.492100
  H       0.000000     -0.000000      1.243908
3
Coordinates from ORCA-job irc_IRC_Full E  -1.653327597145
  H       0.000000     -0.000000     -1.727958
  H      -0.000000      0.000000      0.487914
  H       0.000000     -0.000000      1.240044
3
Coordinates from ORCA-job irc_IRC_Full E  -1.653280907560
  H       0.000000     -0.000000     -1.719900
  H      -0.000000      0.000000      0.484052
  H       0.000000     -0.000000      1.235848
3
Coordinates from ORCA-job irc_IRC_Full E  -1.653232677914
  H       0.000000     -0.000000     -1.711866
  H      -0.000000      0.000000      0.479851
  H       0.000000     -0.000000      1.232015
3
Coordinates from ORCA-job irc_IRC_Full E  -1.653182864159
  H       0.000000     -0.000000     -1.703808
  H      -0.000000      0.000000      0.476029
  H       0.000000     -0.000000      1.227779
3
Coordinates from ORCA-job irc_IRC_Full E  -1.653130937067
  H       0.000000     -0.000000     -1.695707
  H      -0.000000      0.000000      0.471883
  H       0.000000     -0.000000      1.223825
3
Coordinates from ORCA-job irc_IRC_Full E  -1.653080153114
  H       0.000000     -0.000000     -1.688103
  H      -0.000000      0.000000      0.468592
  H       0.000000     -0.000000      1.219510
3
Coordinates from ORCA-job irc_IRC_Full E  -1.653051299595
  H       0.000000     -0.000000     -1.684343
  H      -0.000000      0.000000      0.467447
  H       0.000000     -0.000000      1.216896
3
Coordinates from ORCA-job irc_IRC_Full E  -1.653023278176
  H       0.000000     -0.000000     -1.682383
  H      -0.000000      0.000000      0.467840
  H       0.000000     -0.000000      1.214543
3
Coordinates from ORCA-job irc_IRC_Full E  -1.652900875140
  H       0.000000     -0.000000     -1.662685
  H      -0.000000      0.000000      0.455896
  H       0.000000     -0.000000      1.206789
3
Coordinates from ORCA-job irc_IRC_Full E  -1.652359226833
  H       0.000000     -0.000000     -1.598296
  H      -0.000000      0.000000      0.423184
  H       0.000000     -0.000000      1.175111
3
Coordinates from ORCA-job irc_IRC_Full E  -1.651679169921
  H       0.000000     -0.000000     -1.534954
  H      -0.000000      0.000000      0.391158
  H       0.000000     -0.000000      1.143796
3
Coordinates from ORCA-job irc_IRC_Full E  -1.650811919728
  H       0.000000     -0.000000     -1.470857
  H      -0.000000      0.000000      0.359626
  H       0.000000     -0.000000      1.111231
3
Coordinates from ORCA-job irc_IRC_Full E  -1.649738686442
  H       0.000000     -0.000000     -1.407399
  H      -0.000000      0.000000      0.326984
  H       0.000000     -0.000000      1.080416
3
Coordinates from ORCA-job irc_IRC_Full E  -1.648474392002
  H       0.000000     -0.000000     -1.346766
  H      -0.000000      0.000000      0.295170
  H       0.000000     -0.000000      1.051596
3
Coordinates from ORCA-job irc_IRC_Full E  -1.646861270281
  H       0.000000     -0.000000     -1.282408
  H      -0.000000      0.000000      0.264119
  H       0.000000     -0.000000      1.018289
3
Coordinates from ORCA-job irc_IRC_Full E  -1.644977264215
  H       0.000000     -0.000000     -1.220151
  H      -0.000000      0.000000      0.229753
  H       0.000000     -0.000000      0.990399
3
Coordinates from ORCA-job irc_IRC_Full E  -1.642735692522
  H       0.000000     -0.000000     -1.156538
  H      -0.000000      0.000000      0.198074
  H       0.000000     -0.000000      0.958464
3
Coordinates from ORCA-job irc_IRC_Full E  -1.640186796035
  H       0.000000     -0.000000     -1.093634
  H      -0.000000      0.000000      0.159609
  H       0.000000     -0.000000      0.934025
3
Coordinates from ORCA-job irc_IRC_Full E  -1.637394005558
  H       0.000000     -0.000000     -1.030180
  H      -0.000000      0.000000      0.123384
  H       0.000000     -0.000000      0.906796
3
Coordinates from ORCA-job irc_IRC_Full E  -1.634491779350
  H       0.000000     -0.000000     -0.966137
  H      -0.000000      0.000000      0.070483
  H       0.000000     -0.000000      0.895654
3
Coordinates from ORCA-job irc_IRC_Full E  -1.633043238733
  H       0.000000     -0.000000     -0.930895
  H      -0.000000      0.000000     -0.000000
  H       0.000000     -0.000000      0.930895
3
Coordinates from ORCA-job irc_IRC_Full E  -1.634491779401
  H       0.000000     -0.000000     -0.895654
  H      -0.000000      0.000000     -0.070483
  H       0.000000     -0.000000      0.966137
3
Coordinates from ORCA-job irc_IRC_Full E  -1.637394005406
  H       0.000000     -0.000000     -0.906796
  H      -0.000000      0.000000     -0.123384
  H       0.000000     -0.000000      1.030180
3
Coordinates from ORCA-job irc_IRC_Full E  -1.640186796065
  H       0.000000     -0.000000     -0.934025
  H      -0.000000      0.000000     -0.159609
  H       0.000000     -0.000000      1.093634
3
Coordinates from ORCA-job irc_IRC_Full E  -1.642735692522
  H       0.000000     -0.000000     -0.958464
  H      -0.000000      0.000000     -0.198074
  H       0.000000     -0.000000      1.156538
3
Coordinates from ORCA-job irc_IRC_Full E  -1.644977264302
  H       0.000000     -0.000000     -0.990399
  H      -0.000000      0.000000     -0.229753
  H       0.000000     -0.000000      1.220151
3
Coordinates from ORCA-job irc_IRC_Full E  -1.646861270241
  H       0.000000     -0.000000     -1.018289
  H      -0.000000      0.000000     -0.264119
  H       0.000000     -0.000000      1.282408
3
Coordinates from ORCA-job irc_IRC_Full E  -1.648474392160
  H       0.000000     -0.000000     -1.051596
  H      -0.000000      0.000000     -0.295170
  H       0.000000     -0.000000      1.346766
3
Coordinates from ORCA-job irc_IRC_Full E  -1.649738685411
  H       0.000000     -0.000000     -1.080416
  H      -0.000000      0.000000     -0.326984
  H       0.000000     -0.000000      1.407399
3
Coordinates from ORCA-job irc_IRC_Full E  -1.650811918687
  H       0.000000     -0.000000     -1.111231
  H      -0.000000      0.000000     -0.359626
  H       0.000000     -0.000000      1.470857
3
Coordinates from ORCA-job irc_IRC_Full E  -1.651679169254
  H       0.000000     -0.000000     -1.143796
  H      -0.000000      0.000000     -0.391158
  H       0.000000     -0.000000      1.534954
3
Coordinates from ORCA-job irc_IRC_Full E  -1.652359225848
  H       0.000000     -0.000000     -1.175111
  H      -0.000000      0.000000     -0.423184
  H       0.000000     -0.000000      1.598296
3
Coordinates from ORCA-job irc_IRC_Full E  -1.652900874341
  H       0.000000     -0.000000     -1.206789
  H      -0.000000      0.000000     -0.455896
  H       0.000000     -0.000000      1.662685
3
Coordinates from ORCA-job irc_IRC_Full E  -1.653023292255
  H       0.000000     -0.000000     -1.214544
  H      -0.000000      0.000000     -0.467841
  H       0.000000     -0.000000      1.682385
3
Coordinates from ORCA-job irc_IRC_Full E  -1.653051313332
  H       0.000000     -0.000000     -1.216897
  H      -0.000000      0.000000     -0.467448
  H       0.000000     -0.000000      1.684345
3
Coordinates from ORCA-job irc_IRC_Full E  -1.653080166178
  H       0.000000     -0.000000     -1.219511
  H      -0.000000      0.000000     -0.468593
  H       0.000000     -0.000000      1.688105
3
Coordinates from ORCA-job irc_IRC_Full E  -1.653130949671
  H       0.000000     -0.000000     -1.223826
  H      -0.000000      0.000000     -0.471884
  H       0.000000     -0.000000      1.695709
3
Coordinates from ORCA-job irc_IRC_Full E  -1.653182876361
  H       0.000000     -0.000000     -1.227780
  H      -0.000000      0.000000     -0.476030
  H       0.000000     -0.000000      1.703810
3
Coordinates from ORCA-job irc_IRC_Full E  -1.653232689731
  H       0.000000     -0.000000     -1.232016
  H      -0.000000      0.000000     -0.479852
  H       0.000000     -0.000000      1.711868
3
Coordinates from ORCA-job irc_IRC_Full E  -1.653280919015
  H       0.000000     -0.000000     -1.235849
  H      -0.000000      0.000000     -0.484053
  H       0.000000     -0.000000      1.719902
3
Coordinates from ORCA-job irc_IRC_Full E  -1.653327608252
  H       0.000000     -0.000000     -1.240045
  H      -0.000000      0.000000     -0.487915
  H       0.000000     -0.000000      1.727960
3
Coordinates from ORCA-job irc_IRC_Full E  -1.653372848273
  H       0.000000     -0.000000     -1.243909
  H      -0.000000      0.000000     -0.492101
  H       0.000000     -0.000000      1.736010
3
Coordinates from ORCA-job irc_IRC_Full E  -1.653416525953
  H       0.000000     -0.000000     -1.248104
  H      -0.000000      0.000000     -0.495958
  H       0.000000     -0.000000      1.744062
3
Coordinates from ORCA-job irc_IRC_Full E  -1.653458866058
  H       0.000000     -0.000000     -1.251984
  H      -0.000000      0.000000     -0.500128
  H       0.000000     -0.000000      1.752112
3
Coordinates from ORCA-job irc_IRC_Full E  -1.653499743267
  H       0.000000     -0.000000     -1.256167
  H      -0.000000      0.000000     -0.504001
  H       0.000000     -0.000000      1.760168
3
Coordinates from ORCA-job irc_IRC_Full E  -1.653539344202
  H       0.000000     -0.000000     -1.260060
  H      -0.000000      0.000000     -0.508158
  H       0.000000     -0.000000      1.768218
3
Coordinates from ORCA-job irc_IRC_Full E  -1.653577574492
  H       0.000000     -0.000000     -1.264231
  H      -0.000000      0.000000     -0.512046
  H       0.000000     -0.000000      1.776277
3
Coordinates from ORCA-job irc_IRC_Full E  -1.653614587638
  H       0.000000     -0.000000     -1.268136
  H      -0.000000      0.000000     -0.516191
  H       0.000000     -0.000000      1.784327
3
Coordinates from ORCA-job irc_IRC_Full E  -1.653650317378
  H       0.000000     -0.000000     -1.272298
  H      -0.000000      0.000000     -0.520092
  H       0.000000     -0.000000      1.792390
3
Coordinates from ORCA-job irc_IRC_Full E  -1.653684888479
  H       0.000000     -0.000000     -1.276214
  H      -0.000000      0.000000     -0.524226
  H       0.000000     -0.000000      1.800440
3
Coordinates from ORCA-job irc_IRC_Full E  -1.653718256033
  H       0.000000     -0.000000     -1.280367
  H      -0.000000      0.000000     -0.528138
  H       0.000000     -0.000000      1.808505
3
Coordinates from ORCA-job irc_IRC_Full E  -1.653750518585
  H       0.000000     -0.000000     -1.284268
  H      -0.000000      0.000000     -0.532289
  H       0.000000     -0.000000      1.816557
3
Coordinates from ORCA-job irc_IRC_Full E  -1.653781608596
  H       0.000000     -0.000000     -1.288400
  H      -0.000000      0.000000     -0.536205
  H       0.000000     -0.000000      1.824605
3
Coordinates from ORCA-job irc_IRC_Full E  -1.653811764337
  H       0.000000     -0.000000     -1.292347
  H      -0.000000      0.000000     -0.540330
  H       0.000000     -0.000000      1.832677
3
Coordinates from ORCA-job irc_IRC_Full E  -1.653840749887
  H       0.000000     -0.000000     -1.296471
  H      -0.000000      0.000000     -0.544256
  H       0.000000     -0.000000      1.840727
3
Coordinates from ORCA-job irc_IRC_Full E  -1.653868857579
  H       0.000000     -0.000000     -1.300427
  H      -0.000000      0.000000     -0.548373
  H       0.000000     -0.000000      1.848800
