      81
 i =       19, E =     -3850.0274927927
 Cu         1.3170274005        1.2677204848        1.6396013193
 Cu         3.8737535470        1.2686793252        1.6424184016
 Cu         6.4304205938        1.2685175018        1.6426030219
 Cu         8.9867962036        1.2687058085        1.6421760747
 Cu        11.5437636170        1.2678026912        1.6398001402
 Cu         1.3179776862        3.8141600504        1.7083232783
 Cu         3.8750554318        3.8139167451        1.7088557450
 Cu         6.4303782390        3.8139516097        1.7061998871
 Cu         8.9855762316        3.8140428898        1.7073760874
 Cu        11.5426954557        3.8140747623        1.7077993283
 Cu         1.3168798414        6.4132109919        1.7080370351
 Cu         3.8734080083        6.4121947591        1.7081139713
 Cu         6.4301564828        6.4123143515        1.7105888969
 Cu         8.9873686734        6.4119902878        1.7084277002
 Cu        11.5439421231        6.4130383230        1.7065602821
 Cu         1.3170323901        8.9572889137        1.7114973589
 Cu         3.8739505166        8.9572465608        1.7146060350
 Cu         6.4302766141        8.9575932471        1.7109781748
 Cu         8.9867301751        8.9574803197        1.7140274348
 Cu        11.5438383735        8.9572613047        1.7112489439
 Cu         0.0397409949        0.0309651007        3.5621974827
 Cu         2.5988371076        0.0318913905        3.5646992611
 Cu         5.1517958065        0.0322646443        3.5650048232
 Cu         7.7089651597        0.0324413207        3.5652256406
 Cu        10.2620520666        0.0320178957        3.5647438216
 Cu         0.0401344846        2.5671961766        3.5632333270
 Cu         2.5961509331        2.5653072823        3.5665274237
 Cu         5.1478523010        2.5632102604        3.5614992180
 Cu         7.7128094116        2.5631434330        3.5618738581
 Cu        10.2644035489        2.5652211724        3.5662952431
 Cu         0.0401761549        5.1128767685        3.5694428666
 Cu         2.5962205356        5.1127842533        3.5709182157
 Cu         5.1486480671        5.1138713719        3.5676888492
 Cu         7.7098032735        5.1122833621        3.5638319220
 Cu        10.2664039447        5.1112495141        3.5674405109
 Cu         0.0402683152        7.6623191288        3.5696244429
 Cu         2.6006159400        7.6596760854        3.5767013818
 Cu         5.1508202812        7.6595177102        3.5776964089
 Cu         7.7081232551        7.6611445413        3.5738011991
 Cu        10.2615157092        7.6611935532        3.5727155764
 Cu         1.3200545556        1.2709852687        5.4105932719
 Cu         3.8783040803        1.2745616553        5.4650523189
 Cu         6.4305727323        1.2739491261        5.4140318871
 Cu         8.9821575255        1.2776845466        5.4642940504
 Cu        11.5405076342        1.2710958234        5.4100717488
 Cu         1.3160603713        3.8192966534        5.4122681562
 Cu         3.8742315971        3.8114053158        5.4067217573
 Cu         6.4305564003        3.8169621540        5.3817435360
 Cu         8.9861829659        3.8094831302        5.4063280028
 Cu        11.5446110528        3.8184563115        5.4113928079
 Cu         1.3196023846        6.4096194250        5.4076821114
 Cu         3.8811183487        6.3473201410        5.4663817750
 Cu         6.4289400261        6.4027535924        5.4124421822
 Cu         8.9815046909        6.3499765671        5.4158809334
 Cu        11.5413899431        6.4090514842        5.4075774081
 Cu         1.3189763791        8.9555594636        5.4066781042
 Cu         3.8743878019        8.9495248770        5.4057957476
 Cu         6.4315830631        8.9552682681        5.4054400719
 Cu         8.9854253145        8.9506374797        5.4073356590
 Cu        11.5413365395        8.9558083596        5.4068297037
 Cu         0.0402186599        0.0364296042        7.3132606309
 Cu         2.5976162678       -0.0327855906        7.3171366415
 Cu         5.1543877354       -0.0320519114        7.3171327353
 Cu         7.7060418748        0.0305573879        7.3170891288
 Cu        10.2627880348       -0.0337977770        7.3168811990
 Cu         0.0403599211        2.5771744645        7.3190231726
 Cu         2.5959517555        2.5699996428        7.3195619368
 Cu         5.1525063244        2.5689695685        7.3271269829
 Cu         7.7093995875        2.5745947868        7.3850488410
 Cu        10.2639762567        2.5706478995        7.3197068758
 Cu         0.0397087139        5.1105326459        7.3137242714
 Cu         2.5949034470        5.1080208205        7.3192459714
 Cu         5.1519069710        5.1112971513        7.3873861558
 Cu         7.7093223486        5.1119826307        7.3238943818
 Cu        10.2643747888        5.1104329599        7.3156576390
 Cu         0.0395800477        7.6512575033        7.3118706811
 Cu         2.5987179278        7.6508664424        7.3145163041
 Cu         5.1534353494        7.6498111096        7.3144168383
 Cu         7.7086826318        7.6553681161        7.3116309174
 Cu        10.2607748986        7.6494333954        7.3115773857
  H         6.4318403995        3.8535410283        7.9066904603
