%chk=min1.chk
%nprocshared=1
%mem=1GB
#p opt Freq UB3LYP 6-31G(d,p) pop(hirshfeld) density=current iop(7/33=1) iop(6/80=1)

 Minimum No. 1 

0 2 
O -1.19684063915573 -0.0806647540020502 0.0517912769319532 
H -1.31465090442462 0.860901617394492 0.279757191357439 
N 1.25840671312791 0.0117631913485597 -0.0894823159664335 
H 1.03507783764509 -0.615346424311206 0.676946529672269 
H 0.527458420439864 -0.0944724113860828 -0.793350040725963 
H 1.26210041266011 0.965683496458823 0.257979809743004 

