%chk=min2.chk
%nprocshared=1
%mem=1GB
#p opt Freq UB3LYP 6-31G(d,p) pop(hirshfeld) density=current iop(7/33=1) iop(6/80=1)

 Minimum No. 2 

0 2 
O -1.26772376761434 -0.0790003163962758 0.0490230660740743 
H -1.51730384051934 0.849819423400987 -0.0385351929010414 
N 1.36543489140475 0.0282685916491903 -0.0916297897401585 
H 1.51907411304573 -0.719014713356287 0.600211425812557 
H -0.463241008638666 -0.150514324150187 -0.499276948458285 
H 1.60933629974946 0.88072824846505 0.432705469439465 

