%chk=path.chk
%NProcShared=4
%mem=4GB
# irc=(maxpoints=25,calcall) b3lyp/6-31G(d,p) geom=connectivity

Title Card Required

0 2
 O                 -1.16730900   -0.10440900    0.01300000
 H                 -1.35563100    0.84006900    0.14779100
 N                  1.14697600   -0.01516600   -0.11163600
 H                  1.31285100   -0.69154700    0.63581700
 H                  0.02861000   -0.11102500   -0.40446000
 H                  1.32380900    0.90393800    0.29830000

 1 2 1.0
 2
 3 4 1.0 6 1.0
 4
 5
 6

