%chk=ts.chk
%nprocshared=4
%mem=4GB
# opt=(calcall,ts,noeigentest) b3lyp/6-31G(d,p) geom=connectivity

Title Card Required

0 2
 O                 -1.17543700    0.08136500    0.02141500
 H                 -1.20277100   -0.81718700   -0.33042200
 N                  1.14575800    0.08116500    0.07677400
 H                  1.22974300    0.21939500   -0.92542400
 H                  0.08357700    0.29255700    0.31119700
 H                  1.27264300   -0.91384000    0.23591100

 1 2 1.0
 2
 3 4 1.0 6 1.0
 4
 5
 6


